lib/t/t_case9_save2psse.raw
0, 100, 33, 0, 0, 60  / 17-Jan-2019 15:30:41 - MATPOWER 7.0


     1, 'bus 1       ',       345, 3,    1,    1, 1,           1,           0,  1.1,  0.9,  1.1,  0.9
     2, 'bus 2       ',       345, 2,    1,    1, 1,           1,           0,  1.1,  0.9,  1.1,  0.9
     3, 'bus 3       ',       345, 2,    1,    1, 1,           1,           0,  1.1,  0.9,  1.1,  0.9
     4, 'bus 4       ',       345, 1,    1,    1, 1,           1,           0,  1.1,  0.9,  1.1,  0.9
     5, 'bus 5       ',       345, 1,    1,    1, 1,           1,           0,  1.1,  0.9,  1.1,  0.9
     6, 'bus 6       ',       345, 1,    1,    1, 1,           1,           0,  1.1,  0.9,  1.1,  0.9
     7, 'bus 7       ',       345, 1,    1,    1, 1,           1,           0,  1.1,  0.9,  1.1,  0.9
     8, 'bus 8       ',       345, 1,    1,    1, 1,           1,           0,  1.1,  0.9,  1.1,  0.9
     9, 'bus 9       ',       345, 1,    1,    1, 1,           1,           0,  1.1,  0.9,  1.1,  0.9
0 / END OF BUS DATA, BEGIN LOAD DATA
     5,  1, 1,    1,    1,        90,        30, 0, 0, 0, 0, 1, 1, 0
     7,  1, 1,    1,    1,       100,        35, 0, 0, 0, 0, 1, 1, 0
     9,  1, 1,    1,    1,       125,        50, 0, 0, 0, 0, 1, 1, 0
0 / END OF LOAD DATA, BEGIN FIXED SHUNT DATA
0 / END OF FIXED SHUNT DATA, BEGIN GENERATOR DATA
     1,  1,         0,         0,       300,      -300,        1, 0,     100, 0, 1, 0, 0, 1, 1, 100,       250,        90, 1, 1, 0, 1, 0, 1, 0, 1, 0, 1
     2,  1,       163,         0,       300,      -300,        1, 0,     100, 0, 1, 0, 0, 1, 1, 100,       300,        10, 1, 1, 0, 1, 0, 1, 0, 1, 0, 1
     3,  1,        85,         0,       300,      -300,        1, 0,     100, 0, 1, 0, 0, 1, 1, 100,       270,        10, 1, 1, 0, 1, 0, 1, 0, 1, 0, 1
0 / END OF GENERATOR DATA, BEGIN BRANCH DATA
     1,      4, 1,        0,   0.0576,        0,     250,     250,     250, 0, 0, 0, 0, 1, 1, 0, 1, 1, 0, 1, 0, 1, 0, 1
     4,      5, 1,    0.017,    0.092,    0.158,     250,     250,     250, 0, 0, 0, 0, 1, 1, 0, 1, 1, 0, 1, 0, 1, 0, 1
     5,      6, 1,    0.039,     0.17,    0.358,     150,     150,     150, 0, 0, 0, 0, 1, 1, 0, 1, 1, 0, 1, 0, 1, 0, 1
     3,      6, 1,        0,   0.0586,        0,     300,     300,     300, 0, 0, 0, 0, 1, 1, 0, 1, 1, 0, 1, 0, 1, 0, 1
     6,      7, 1,   0.0119,   0.1008,    0.209,      40,     150,     150, 0, 0, 0, 0, 1, 1, 0, 1, 1, 0, 1, 0, 1, 0, 1
     7,      8, 1,   0.0085,    0.072,    0.149,     250,     250,     250, 0, 0, 0, 0, 1, 1, 0, 1, 1, 0, 1, 0, 1, 0, 1
     8,      2, 1,        0,   0.0625,        0,     250,     250,     250, 0, 0, 0, 0, 1, 1, 0, 1, 1, 0, 1, 0, 1, 0, 1
0 / END OF BRANCH DATA, BEGIN TRANSFORMER DATA
     8,      9, 0, 1, 1, 1, 1, 0, 0, 2, '            ', 1, 1, 1, 0, 1, 0, 1, 0, 1, '            '
0.032, 0.161, 100
0.935, 0,     0,     250,     250,     250, 0, 0, 1.1, 0.9, 1.1, 0.9, 33, 0, 0, 0, 0
    1, 0
     9,      4, 0, 1, 1, 1, 1, 0, 0, 2, '            ', 1, 1, 1, 0, 1, 0, 1, 0, 1, '            '
0.01, 0.085, 100
    0, 0,     5,     250,     250,     250, 0, 0, 1.1, 0.9, 1.1, 0.9, 33, 0, 0, 0, 0
    1, 0
0 / END OF TRANSFORMER DATA, BEGIN AREA DATA
0 / END OF AREA DATA, BEGIN TWO-TERMINAL DC DATA
'DCLINE 1    ', 1, 0.0,         4, 500, 0.0, 0.0, 0.0, I, 0.0, 20, 1.0
     3, 1, 25.0, 15.0, 0, 0,      345, 1.0, 1.0, 1.5, 0.51, 0.00625, 0, 0, 0, '1', 0.0
     4, 1, 25.0, 15.0, 0, 0,      345, 1.0, 1.0, 1.5, 0.51, 0.00625, 0, 0, 0, '1', 0.0
'DCLINE 2    ', 1, 0.0,         3, 500, 0.0, 0.0, 0.0, I, 0.0, 20, 1.0
     4, 1, 25.0, 15.0, 0, 0,      345, 1.0, 1.0, 1.5, 0.51, 0.00625, 0, 0, 0, '1', 0.0
     7, 1, 25.0, 15.0, 0, 0,      345, 1.0, 1.0, 1.5, 0.51, 0.00625, 0, 0, 0, '1', 0.0
0 / END OF TWO-TERMINAL DC DATA, BEGIN VOLTAGE SOURCE CONVERTER DATA
0 / END OF VOLTAGE SOURCE CONVERTER DATA, BEGIN IMPEDANCE CORRECTION DATA
0 / END OF IMPEDANCE CORRECTION DATA, BEGIN MULTI-TERMINAL DC DATA
0 / END OF MULTI-TERMINAL DC DATA, BEGIN MULTI-SECTION LINE DATA
0 / END OF MULTI-SECTION LINE DATA, BEGIN ZONE DATA
0 / END OF ZONE DATA, BEGIN INTER-AREA TRANSFER DATA
0 / END OF INTER-AREA TRANSFER DATA, BEGIN OWNER DATA
0 / END OF OWNER DATA, BEGIN FACTS CONTROL DEVICE DATA
0 / END OF FACTS CONTROL DEVICE DATA, BEGIN SWITCHED SHUNT DATA
0 / END OF SWITCHED SHUNT DATA, BEGIN GNE DEVICE DATA
0 / END OF GNE DEVICE DATA, BEGIN INDUCTION MACHINE DATA
0 / END OF INDUCTION MACHINE DATA
Q
